      1 'GENROU' 1     6.7000      0.39000E-01  0.56000      0.80000E-01
          5.3000       0.0000       1.9500       1.8500      0.24000
         0.44000      0.18000      0.14000      0.70000E-01  0.45000    /
      1 'ESST4B' 1    0.10000E-01   3.9000       3.9000       1.0000
        -0.80000      0.10000E-01   1.0000       0.0000       1.0000
        -0.80000       0.0000       5.3000       0.0000       6.4000
         0.75000E-01   0.0000       0.0000    /
      4 'GENROU' 1     6.7000      0.39000E-01  0.56000      0.80000E-01
          5.3000       0.0000       1.9500       1.8500      0.24000
         0.44000      0.18000      0.14000      0.70000E-01  0.45000    /
      4 'ESST4B' 1    0.10000E-01   3.9000       3.9000       1.0000
        -0.80000      0.10000E-01   1.0000       0.0000       1.0000
        -0.80000       0.0000       5.3000       0.0000       6.4000
         0.75000E-01   0.0000       0.0000    /
      4 'GGOV1' 1           1         0
          0.50000E-01    1.0000       0.10000      -0.10000        3.0000
           1.0000        0.0000       0.10000E-01    1.0000        0.0000
          0.15000        1.7000       0.23000       0.40000        0.0000
           0.0000        1.0000       0.50000       0.20000        1.0000
           0.0000        1.0000       -1.0000        0.0000       0.10000E-01
           10.000        0.0000        0.0000        0.0000        1.0000
           1.0000        99.000       -99.000    /
      6 'GENROU' 1     6.7000      0.39000E-01  0.56000      0.80000E-01
          5.3000       0.0000       1.9500       1.8500      0.24000
         0.44000      0.18000      0.14000      0.70000E-01  0.45000    /
      6 'ESST4B' 1    0.10000E-01   3.9000       3.9000       1.0000
        -0.80000      0.10000E-01   1.0000       0.0000       1.0000
        -0.80000       0.0000       5.3000       0.0000       6.4000
         0.75000E-01   0.0000       0.0000    /
      6 'GGOV1' 1           1         0
          0.50000E-01    1.0000       0.10000      -0.10000        3.0000
           1.0000        0.0000       0.10000E-01    1.0000        0.0000
          0.15000        1.7000       0.23000       0.40000        0.0000
           0.0000        1.0000       0.50000       0.20000        1.0000
           0.0000        1.0000       -1.0000        0.0000       0.10000E-01
           10.000        0.0000        0.0000        0.0000        1.0000
           1.0000        99.000       -99.000    /
      8 'GENROU' 1     6.7000      0.39000E-01  0.56000      0.80000E-01
          5.3000       0.0000       1.9500       1.8500      0.24000
         0.44000      0.18000      0.14000      0.70000E-01  0.45000    /
      8 'ESST4B' 1    0.10000E-01   3.9000       3.9000       1.0000
        -0.80000      0.10000E-01   1.0000       0.0000       1.0000
        -0.80000       0.0000       5.3000       0.0000       6.4000
         0.75000E-01   0.0000       0.0000    /
      8 'GGOV1' 1           1         0
          0.50000E-01    1.0000       0.10000      -0.10000        3.0000
           1.0000        0.0000       0.10000E-01    1.0000        0.0000
          0.15000        1.7000       0.23000       0.40000        0.0000
           0.0000        1.0000       0.50000       0.20000        1.0000
           0.0000        1.0000       -1.0000        0.0000       0.10000E-01
           10.000        0.0000        0.0000        0.0000        1.0000
           1.0000        99.000       -99.000    /
     10 'GENROU' 1     6.7000      0.39000E-01  0.56000      0.80000E-01
          5.3000       0.0000       1.9500       1.8500      0.24000
         0.44000      0.18000      0.14000      0.70000E-01  0.45000    /
     10 'ESST4B' 1    0.10000E-01   3.9000       3.9000       1.0000
        -0.80000      0.10000E-01   1.0000       0.0000       1.0000
        -0.80000       0.0000       5.3000       0.0000       6.4000
         0.75000E-01   0.0000       0.0000    /
     10 'GGOV1' 1           1         0
          0.50000E-01    1.0000       0.10000      -0.10000        3.0000
           1.0000        0.0000       0.10000E-01    1.0000        0.0000
          0.15000        1.7000       0.23000       0.40000        0.0000
           0.0000        1.0000       0.50000       0.20000        1.0000
           0.0000        1.0000       -1.0000        0.0000       0.10000E-01
           10.000        0.0000        0.0000        0.0000        1.0000
           1.0000        99.000       -99.000    /
     12 'GENROU' 1     6.7000      0.39000E-01  0.56000      0.80000E-01
          5.3000       0.0000       1.9500       1.8500      0.24000
         0.44000      0.18000      0.14000      0.70000E-01  0.45000    /
     12 'ESST4B' 1    0.10000E-01   3.9000       3.9000       1.0000
        -0.80000      0.10000E-01   1.0000       0.0000       1.0000
        -0.80000       0.0000       5.3000       0.0000       6.4000
         0.75000E-01   0.0000       0.0000    /
     12 'GGOV1' 1           1         0
          0.50000E-01    1.0000       0.10000      -0.10000        3.0000
           1.0000        0.0000       0.10000E-01    1.0000        0.0000
          0.15000        1.7000       0.23000       0.40000        0.0000
           0.0000        1.0000       0.50000       0.20000        1.0000
           0.0000        1.0000       -1.0000        0.0000       0.10000E-01
           10.000        0.0000        0.0000        0.0000        1.0000
           1.0000        99.000       -99.000    /
     15 'GENROU' 1     6.7000      0.39000E-01  0.56000      0.80000E-01
          5.3000       0.0000       1.9500       1.8500      0.24000
         0.44000      0.18000      0.14000      0.70000E-01  0.45000    /
     15 'ESST4B' 1    0.10000E-01   3.9000       3.9000       1.0000
        -0.80000      0.10000E-01   1.0000       0.0000       1.0000
        -0.80000       0.0000       5.3000       0.0000       6.4000
         0.75000E-01   0.0000       0.0000    /
     15 'GGOV1' 1           1         0
          0.50000E-01    1.0000       0.10000      -0.10000        3.0000
           1.0000        0.0000       0.10000E-01    1.0000        0.0000
          0.15000        1.7000       0.23000       0.40000        0.0000
           0.0000        1.0000       0.50000       0.20000        1.0000
           0.0000        1.0000       -1.0000        0.0000       0.10000E-01
           10.000        0.0000        0.0000        0.0000        1.0000
           1.0000        99.000       -99.000    /
     18 'GENROU' 1     6.7000      0.39000E-01  0.56000      0.80000E-01
          5.3000       0.0000       1.9500       1.8500      0.24000
         0.44000      0.18000      0.14000      0.70000E-01  0.45000    /
     18 'ESST4B' 1    0.10000E-01   3.9000       3.9000       1.0000
        -0.80000      0.10000E-01   1.0000       0.0000       1.0000
        -0.80000       0.0000       5.3000       0.0000       6.4000
         0.75000E-01   0.0000       0.0000    /
     18 'GGOV1' 1           1         0
          0.50000E-01    1.0000       0.10000      -0.10000        3.0000
           1.0000        0.0000       0.10000E-01    1.0000        0.0000
          0.15000        1.7000       0.23000       0.40000        0.0000
           0.0000        1.0000       0.50000       0.20000        1.0000
           0.0000        1.0000       -1.0000        0.0000       0.10000E-01
           10.000        0.0000        0.0000        0.0000        1.0000
           1.0000        99.000       -99.000    /
     19 'GENROU' 1     6.7000      0.39000E-01  0.56000      0.80000E-01
          5.3000       0.0000       1.9500       1.8500      0.24000
         0.44000      0.18000      0.14000      0.70000E-01  0.45000    /
     19 'ESST4B' 1    0.10000E-01   3.9000       3.9000       1.0000
        -0.80000      0.10000E-01   1.0000       0.0000       1.0000
        -0.80000       0.0000       5.3000       0.0000       6.4000
         0.75000E-01   0.0000       0.0000    /
     19 'GGOV1' 1           1         0
          0.50000E-01    1.0000       0.10000      -0.10000        3.0000
           1.0000        0.0000       0.10000E-01    1.0000        0.0000
          0.15000        1.7000       0.23000       0.40000        0.0000
           0.0000        1.0000       0.50000       0.20000        1.0000
           0.0000        1.0000       -1.0000        0.0000       0.10000E-01
           10.000        0.0000        0.0000        0.0000        1.0000
           1.0000        99.000       -99.000    /
     24 'GENROU' 1     6.7000      0.39000E-01  0.56000      0.80000E-01
          5.3000       0.0000       1.9500       1.8500      0.24000
         0.44000      0.18000      0.14000      0.70000E-01  0.45000    /
     24 'ESST4B' 1    0.10000E-01   3.9000       3.9000       1.0000
        -0.80000      0.10000E-01   1.0000       0.0000       1.0000
        -0.80000       0.0000       5.3000       0.0000       6.4000
         0.75000E-01   0.0000       0.0000    /
     24 'GGOV1' 1           1         0
          0.50000E-01    1.0000       0.10000      -0.10000        3.0000
           1.0000        0.0000       0.10000E-01    1.0000        0.0000
          0.15000        1.7000       0.23000       0.40000        0.0000
           0.0000        1.0000       0.50000       0.20000        1.0000
           0.0000        1.0000       -1.0000        0.0000       0.10000E-01
           10.000        0.0000        0.0000        0.0000        1.0000
           1.0000        99.000       -99.000    /
     25 'GENROU' 1     6.7000      0.39000E-01  0.56000      0.80000E-01
          5.3000       0.0000       1.9500       1.8500      0.24000
         0.44000      0.18000      0.14000      0.70000E-01  0.45000    /
     25 'ESST4B' 1    0.10000E-01   3.9000       3.9000       1.0000
        -0.80000      0.10000E-01   1.0000       0.0000       1.0000
        -0.80000       0.0000       5.3000       0.0000       6.4000
         0.75000E-01   0.0000       0.0000    /
     25 'GGOV1' 1           1         0
          0.50000E-01    1.0000       0.10000      -0.10000        3.0000
           1.0000        0.0000       0.10000E-01    1.0000        0.0000
          0.15000        1.7000       0.23000       0.40000        0.0000
           0.0000        1.0000       0.50000       0.20000        1.0000
           0.0000        1.0000       -1.0000        0.0000       0.10000E-01
           10.000        0.0000        0.0000        0.0000        1.0000
           1.0000        99.000       -99.000    /
     26 'GENROU' 1     6.7000      0.39000E-01  0.56000      0.80000E-01
          5.3000       0.0000       1.9500       1.8500      0.24000
         0.44000      0.18000      0.14000      0.70000E-01  0.45000    /
     26 'ESST4B' 1    0.10000E-01   3.9000       3.9000       1.0000
        -0.80000      0.10000E-01   1.0000       0.0000       1.0000
        -0.80000       0.0000       5.3000       0.0000       6.4000
         0.75000E-01   0.0000       0.0000    /
     26 'GGOV1' 1           1         0
          0.50000E-01    1.0000       0.10000      -0.10000        3.0000
           1.0000        0.0000       0.10000E-01    1.0000        0.0000
          0.15000        1.7000       0.23000       0.40000        0.0000
           0.0000        1.0000       0.50000       0.20000        1.0000
           0.0000        1.0000       -1.0000        0.0000       0.10000E-01
           10.000        0.0000        0.0000        0.0000        1.0000
           1.0000        99.000       -99.000    /
     27 'GENROU' 1     6.7000      0.39000E-01  0.56000      0.80000E-01
          5.3000       0.0000       1.9500       1.8500      0.24000
         0.44000      0.18000      0.14000      0.70000E-01  0.45000    /
     27 'ESST4B' 1    0.10000E-01   3.9000       3.9000       1.0000
        -0.80000      0.10000E-01   1.0000       0.0000       1.0000
        -0.80000       0.0000       5.3000       0.0000       6.4000
         0.75000E-01   0.0000       0.0000    /
     27 'GGOV1' 1           1         0
          0.50000E-01    1.0000       0.10000      -0.10000        3.0000
           1.0000        0.0000       0.10000E-01    1.0000        0.0000
          0.15000        1.7000       0.23000       0.40000        0.0000
           0.0000        1.0000       0.50000       0.20000        1.0000
           0.0000        1.0000       -1.0000        0.0000       0.10000E-01
           10.000        0.0000        0.0000        0.0000        1.0000
           1.0000        99.000       -99.000    /
     31 'GENROU' 1     6.7000      0.39000E-01  0.56000      0.80000E-01
          5.3000       0.0000       1.9500       1.8500      0.24000
         0.44000      0.18000      0.14000      0.70000E-01  0.45000    /
     31 'ESST4B' 1    0.10000E-01   3.9000       3.9000       1.0000
        -0.80000      0.10000E-01   1.0000       0.0000       1.0000
        -0.80000       0.0000       5.3000       0.0000       6.4000
         0.75000E-01   0.0000       0.0000    /
     31 'GGOV1' 1           1         0
          0.50000E-01    1.0000       0.10000      -0.10000        3.0000
           1.0000        0.0000       0.10000E-01    1.0000        0.0000
          0.15000        1.7000       0.23000       0.40000        0.0000
           0.0000        1.0000       0.50000       0.20000        1.0000
           0.0000        1.0000       -1.0000        0.0000       0.10000E-01
           10.000        0.0000        0.0000        0.0000        1.0000
           1.0000        99.000       -99.000    /
     32 'GENROU' 1     6.7000      0.39000E-01  0.56000      0.80000E-01
          5.3000       0.0000       1.9500       1.8500      0.24000
         0.44000      0.18000      0.14000      0.70000E-01  0.45000    /
     32 'ESST4B' 1    0.10000E-01   3.9000       3.9000       1.0000
        -0.80000      0.10000E-01   1.0000       0.0000       1.0000
        -0.80000       0.0000       5.3000       0.0000       6.4000
         0.75000E-01   0.0000       0.0000    /
     32 'GGOV1' 1           1         0
          0.50000E-01    1.0000       0.10000      -0.10000        3.0000
           1.0000        0.0000       0.10000E-01    1.0000        0.0000
          0.15000        1.7000       0.23000       0.40000        0.0000
           0.0000        1.0000       0.50000       0.20000        1.0000
           0.0000        1.0000       -1.0000        0.0000       0.10000E-01
           10.000        0.0000        0.0000        0.0000        1.0000
           1.0000        99.000       -99.000    /
     34 'GENROU' 1     6.7000      0.39000E-01  0.56000      0.80000E-01
          5.3000       0.0000       1.9500       1.8500      0.24000
         0.44000      0.18000      0.14000      0.70000E-01  0.45000    /
     34 'ESST4B' 1    0.10000E-01   3.9000       3.9000       1.0000
        -0.80000      0.10000E-01   1.0000       0.0000       1.0000
        -0.80000       0.0000       5.3000       0.0000       6.4000
         0.75000E-01   0.0000       0.0000    /
     34 'GGOV1' 1           1         0
          0.50000E-01    1.0000       0.10000      -0.10000        3.0000
           1.0000        0.0000       0.10000E-01    1.0000        0.0000
          0.15000        1.7000       0.23000       0.40000        0.0000
           0.0000        1.0000       0.50000       0.20000        1.0000
           0.0000        1.0000       -1.0000        0.0000       0.10000E-01
           10.000        0.0000        0.0000        0.0000        1.0000
           1.0000        99.000       -99.000    /
     36 'GENROU' 1     6.7000      0.39000E-01  0.56000      0.80000E-01
          5.3000       0.0000       1.9500       1.8500      0.24000
         0.44000      0.18000      0.14000      0.70000E-01  0.45000    /
     36 'ESST4B' 1    0.10000E-01   3.9000       3.9000       1.0000
        -0.80000      0.10000E-01   1.0000       0.0000       1.0000
        -0.80000       0.0000       5.3000       0.0000       6.4000
         0.75000E-01   0.0000       0.0000    /
     36 'GGOV1' 1           1         0
          0.50000E-01    1.0000       0.10000      -0.10000        3.0000
           1.0000        0.0000       0.10000E-01    1.0000        0.0000
          0.15000        1.7000       0.23000       0.40000        0.0000
           0.0000        1.0000       0.50000       0.20000        1.0000
           0.0000        1.0000       -1.0000        0.0000       0.10000E-01
           10.000        0.0000        0.0000        0.0000        1.0000
           1.0000        99.000       -99.000    /
     40 'GENROU' 1     6.7000      0.39000E-01  0.56000      0.80000E-01
          5.3000       0.0000       1.9500       1.8500      0.24000
         0.44000      0.18000      0.14000      0.70000E-01  0.45000    /
     40 'ESST4B' 1    0.10000E-01   3.9000       3.9000       1.0000
        -0.80000      0.10000E-01   1.0000       0.0000       1.0000
        -0.80000       0.0000       5.3000       0.0000       6.4000
         0.75000E-01   0.0000       0.0000    /
     40 'GGOV1' 1           1         0
          0.50000E-01    1.0000       0.10000      -0.10000        3.0000
           1.0000        0.0000       0.10000E-01    1.0000        0.0000
          0.15000        1.7000       0.23000       0.40000        0.0000
           0.0000        1.0000       0.50000       0.20000        1.0000
           0.0000        1.0000       -1.0000        0.0000       0.10000E-01
           10.000        0.0000        0.0000        0.0000        1.0000
           1.0000        99.000       -99.000    /
     42 'GENROU' 1     6.7000      0.39000E-01  0.56000      0.80000E-01
          5.3000       0.0000       1.9500       1.8500      0.24000
         0.44000      0.18000      0.14000      0.70000E-01  0.45000    /
     42 'ESST4B' 1    0.10000E-01   3.9000       3.9000       1.0000
        -0.80000      0.10000E-01   1.0000       0.0000       1.0000
        -0.80000       0.0000       5.3000       0.0000       6.4000
         0.75000E-01   0.0000       0.0000    /
     42 'GGOV1' 1           1         0
          0.50000E-01    1.0000       0.10000      -0.10000        3.0000
           1.0000        0.0000       0.10000E-01    1.0000        0.0000
          0.15000        1.7000       0.23000       0.40000        0.0000
           0.0000        1.0000       0.50000       0.20000        1.0000
           0.0000        1.0000       -1.0000        0.0000       0.10000E-01
           10.000        0.0000        0.0000        0.0000        1.0000
           1.0000        99.000       -99.000    /
     46 'GENROU' 1     6.7000      0.39000E-01  0.56000      0.80000E-01
          5.3000       0.0000       1.9500       1.8500      0.24000
         0.44000      0.18000      0.14000      0.70000E-01  0.45000    /
     46 'ESST4B' 1    0.10000E-01   3.9000       3.9000       1.0000
        -0.80000      0.10000E-01   1.0000       0.0000       1.0000
        -0.80000       0.0000       5.3000       0.0000       6.4000
         0.75000E-01   0.0000       0.0000    /
     46 'GGOV1' 1           1         0
          0.50000E-01    1.0000       0.10000      -0.10000        3.0000
           1.0000        0.0000       0.10000E-01    1.0000        0.0000
          0.15000        1.7000       0.23000       0.40000        0.0000
           0.0000        1.0000       0.50000       0.20000        1.0000
           0.0000        1.0000       -1.0000        0.0000       0.10000E-01
           10.000        0.0000        0.0000        0.0000        1.0000
           1.0000        99.000       -99.000    /
     49 'GENROU' 1     6.7000      0.39000E-01  0.56000      0.80000E-01
          5.3000       0.0000       1.9500       1.8500      0.24000
         0.44000      0.18000      0.14000      0.70000E-01  0.45000    /
     49 'ESST4B' 1    0.10000E-01   3.9000       3.9000       1.0000
        -0.80000      0.10000E-01   1.0000       0.0000       1.0000
        -0.80000       0.0000       5.3000       0.0000       6.4000
         0.75000E-01   0.0000       0.0000    /
     49 'GGOV1' 1           1         0
          0.50000E-01    1.0000       0.10000      -0.10000        3.0000
           1.0000        0.0000       0.10000E-01    1.0000        0.0000
          0.15000        1.7000       0.23000       0.40000        0.0000
           0.0000        1.0000       0.50000       0.20000        1.0000
           0.0000        1.0000       -1.0000        0.0000       0.10000E-01
           10.000        0.0000        0.0000        0.0000        1.0000
           1.0000        99.000       -99.000    /
     54 'GENROU' 1     6.7000      0.39000E-01  0.56000      0.80000E-01
          5.3000       0.0000       1.9500       1.8500      0.24000
         0.44000      0.18000      0.14000      0.70000E-01  0.45000    /
     54 'ESST4B' 1    0.10000E-01   3.9000       3.9000       1.0000
        -0.80000      0.10000E-01   1.0000       0.0000       1.0000
        -0.80000       0.0000       5.3000       0.0000       6.4000
         0.75000E-01   0.0000       0.0000    /
     54 'GGOV1' 1           1         0
          0.50000E-01    1.0000       0.10000      -0.10000        3.0000
           1.0000        0.0000       0.10000E-01    1.0000        0.0000
          0.15000        1.7000       0.23000       0.40000        0.0000
           0.0000        1.0000       0.50000       0.20000        1.0000
           0.0000        1.0000       -1.0000        0.0000       0.10000E-01
           10.000        0.0000        0.0000        0.0000        1.0000
           1.0000        99.000       -99.000    /
     55 'GENROU' 1     6.7000      0.39000E-01  0.56000      0.80000E-01
          5.3000       0.0000       1.9500       1.8500      0.24000
         0.44000      0.18000      0.14000      0.70000E-01  0.45000    /
     55 'ESST4B' 1    0.10000E-01   3.9000       3.9000       1.0000
        -0.80000      0.10000E-01   1.0000       0.0000       1.0000
        -0.80000       0.0000       5.3000       0.0000       6.4000
         0.75000E-01   0.0000       0.0000    /
     55 'GGOV1' 1           1         0
          0.50000E-01    1.0000       0.10000      -0.10000        3.0000
           1.0000        0.0000       0.10000E-01    1.0000        0.0000
          0.15000        1.7000       0.23000       0.40000        0.0000
           0.0000        1.0000       0.50000       0.20000        1.0000
           0.0000        1.0000       -1.0000        0.0000       0.10000E-01
           10.000        0.0000        0.0000        0.0000        1.0000
           1.0000        99.000       -99.000    /
     56 'GENROU' 1     6.7000      0.39000E-01  0.56000      0.80000E-01
          5.3000       0.0000       1.9500       1.8500      0.24000
         0.44000      0.18000      0.14000      0.70000E-01  0.45000    /
     56 'ESST4B' 1    0.10000E-01   3.9000       3.9000       1.0000
        -0.80000      0.10000E-01   1.0000       0.0000       1.0000
        -0.80000       0.0000       5.3000       0.0000       6.4000
         0.75000E-01   0.0000       0.0000    /
     56 'GGOV1' 1           1         0
          0.50000E-01    1.0000       0.10000      -0.10000        3.0000
           1.0000        0.0000       0.10000E-01    1.0000        0.0000
          0.15000        1.7000       0.23000       0.40000        0.0000
           0.0000        1.0000       0.50000       0.20000        1.0000
           0.0000        1.0000       -1.0000        0.0000       0.10000E-01
           10.000        0.0000        0.0000        0.0000        1.0000
           1.0000        99.000       -99.000    /
     59 'GENROU' 1     6.7000      0.39000E-01  0.56000      0.80000E-01
          5.3000       0.0000       1.9500       1.8500      0.24000
         0.44000      0.18000      0.14000      0.70000E-01  0.45000    /
     59 'ESST4B' 1    0.10000E-01   3.9000       3.9000       1.0000
        -0.80000      0.10000E-01   1.0000       0.0000       1.0000
        -0.80000       0.0000       5.3000       0.0000       6.4000
         0.75000E-01   0.0000       0.0000    /
     59 'GGOV1' 1           1         0
          0.50000E-01    1.0000       0.10000      -0.10000        3.0000
           1.0000        0.0000       0.10000E-01    1.0000        0.0000
          0.15000        1.7000       0.23000       0.40000        0.0000
           0.0000        1.0000       0.50000       0.20000        1.0000
           0.0000        1.0000       -1.0000        0.0000       0.10000E-01
           10.000        0.0000        0.0000        0.0000        1.0000
           1.0000        99.000       -99.000    /
     61 'GENROU' 1     6.7000      0.39000E-01  0.56000      0.80000E-01
          5.3000       0.0000       1.9500       1.8500      0.24000
         0.44000      0.18000      0.14000      0.70000E-01  0.45000    /
     61 'ESST4B' 1    0.10000E-01   3.9000       3.9000       1.0000
        -0.80000      0.10000E-01   1.0000       0.0000       1.0000
        -0.80000       0.0000       5.3000       0.0000       6.4000
         0.75000E-01   0.0000       0.0000    /
     61 'GGOV1' 1           1         0
          0.50000E-01    1.0000       0.10000      -0.10000        3.0000
           1.0000        0.0000       0.10000E-01    1.0000        0.0000
          0.15000        1.7000       0.23000       0.40000        0.0000
           0.0000        1.0000       0.50000       0.20000        1.0000
           0.0000        1.0000       -1.0000        0.0000       0.10000E-01
           10.000        0.0000        0.0000        0.0000        1.0000
           1.0000        99.000       -99.000    /
     62 'GENROU' 1     6.7000      0.39000E-01  0.56000      0.80000E-01
          5.3000       0.0000       1.9500       1.8500      0.24000
         0.44000      0.18000      0.14000      0.70000E-01  0.45000    /
     62 'ESST4B' 1    0.10000E-01   3.9000       3.9000       1.0000
        -0.80000      0.10000E-01   1.0000       0.0000       1.0000
        -0.80000       0.0000       5.3000       0.0000       6.4000
         0.75000E-01   0.0000       0.0000    /
     62 'GGOV1' 1           1         0
          0.50000E-01    1.0000       0.10000      -0.10000        3.0000
           1.0000        0.0000       0.10000E-01    1.0000        0.0000
          0.15000        1.7000       0.23000       0.40000        0.0000
           0.0000        1.0000       0.50000       0.20000        1.0000
           0.0000        1.0000       -1.0000        0.0000       0.10000E-01
           10.000        0.0000        0.0000        0.0000        1.0000
           1.0000        99.000       -99.000    /
     65 'GENROU' 1     6.7000      0.39000E-01  0.56000      0.80000E-01
          5.3000       0.0000       1.9500       1.8500      0.24000
         0.44000      0.18000      0.14000      0.70000E-01  0.45000    /
     65 'ESST4B' 1    0.10000E-01   3.9000       3.9000       1.0000
        -0.80000      0.10000E-01   1.0000       0.0000       1.0000
        -0.80000       0.0000       5.3000       0.0000       6.4000
         0.75000E-01   0.0000       0.0000    /
     65 'GGOV1' 1           1         0
          0.50000E-01    1.0000       0.10000      -0.10000        3.0000
           1.0000        0.0000       0.10000E-01    1.0000        0.0000
          0.15000        1.7000       0.23000       0.40000        0.0000
           0.0000        1.0000       0.50000       0.20000        1.0000
           0.0000        1.0000       -1.0000        0.0000       0.10000E-01
           10.000        0.0000        0.0000        0.0000        1.0000
           1.0000        99.000       -99.000    /
     66 'GENROU' 1     6.7000      0.39000E-01  0.56000      0.80000E-01
          5.3000       0.0000       1.9500       1.8500      0.24000
         0.44000      0.18000      0.14000      0.70000E-01  0.45000    /
     66 'ESST4B' 1    0.10000E-01   3.9000       3.9000       1.0000
        -0.80000      0.10000E-01   1.0000       0.0000       1.0000
        -0.80000       0.0000       5.3000       0.0000       6.4000
         0.75000E-01   0.0000       0.0000    /
     66 'GGOV1' 1           1         0
          0.50000E-01    1.0000       0.10000      -0.10000        3.0000
           1.0000        0.0000       0.10000E-01    1.0000        0.0000
          0.15000        1.7000       0.23000       0.40000        0.0000
           0.0000        1.0000       0.50000       0.20000        1.0000
           0.0000        1.0000       -1.0000        0.0000       0.10000E-01
           10.000        0.0000        0.0000        0.0000        1.0000
           1.0000        99.000       -99.000    /
     69 'GENROU' 1     6.7000      0.39000E-01  0.56000      0.80000E-01
          5.3000       0.0000       1.9500       1.8500      0.24000
         0.44000      0.18000      0.14000      0.70000E-01  0.45000    /
     69 'ESST4B' 1    0.10000E-01   3.9000       3.9000       5.0000
        -0.80000      0.10000E-01   1.0000       0.0000       5.0000
        -0.80000       0.0000       5.3000       0.0000       6.4000
         0.75000E-01   0.0000       0.0000    /
     69 'GGOV1' 1           1         0
          0.50000E-01    1.0000       0.10000      -0.10000        3.0000
           1.0000        0.0000       0.10000E-01    1.0000        0.0000
          0.15000        1.7000       0.23000       0.40000        0.0000
           0.0000        1.0000       0.50000       0.20000        1.0000
           0.0000        1.0000       -1.0000        0.0000       0.10000E-01
           10.000        0.0000        0.0000        0.0000        1.0000
           1.0000        99.000       -99.000    /
     70 'GENROU' 1     6.7000      0.39000E-01  0.56000      0.80000E-01
          5.3000       0.0000       1.9500       1.8500      0.24000
         0.44000      0.18000      0.14000      0.70000E-01  0.45000    /