0,   100.00,  32, 0, 1, 60.00     / PSS(R)E 32 RAW created by rawd32  WED, JUL 18 2018  14:37
 08/25/93 UW ARCHIVE           100.0  1961 W IEEE 118 BUS TE
 08/25/93 UW ARCHIVE           100.0  1961 W IEEE 118 BUS TE
     1,'RIVERSDE    ', 138.0000,2,   1,   1,   1,0.97020,  25.6510
     2,'POKAGON     ', 138.0000,1,   1,   1,   1,0.97510,  25.8359
     3,'HICKRYCK    ', 138.0000,1,   1,   1,   1,0.97798,  26.2088
     4,'NWCARLSL    ', 138.0000,2,   1,   1,   1,0.99800,  28.7162
     5,'OLIVE       ', 138.0000,1,   1,   1,   1,1.00155,  28.9217
     6,'KANKAKEE    ', 138.0000,2,   1,   1,   1,0.99000,  27.3798
     7,'JACKSNRD    ', 138.0000,1,   1,   1,   1,0.98681,  26.9014
     8,'OLIVE       ', 138.0000,2,   1,   1,   1,1.01500,  31.9678
     9,'BEQUINE     ', 138.0000,1,   1,   1,   1,1.04775,  36.8078
    10,'BREED       ', 138.0000,2,   1,   1,   1,1.05000,  41.9244
    11,'SOUTHBND    ', 138.0000,1,   1,   1,   1,0.98446,  26.8281
    12,'TWINBRCH    ', 138.0000,2,   1,   1,   1,0.98234,  26.3320
    13,'CONCORD     ', 138.0000,1,   1,   1,   1,0.97751,  25.9395
    14,'GOSHENJT    ', 138.0000,1,   1,   1,   1,0.98249,  25.8531
    15,'FTWAYNE     ', 138.0000,2,   1,   1,   1,0.98240,  25.5496
    16,'N. E.       ', 138.0000,1,   1,   1,   1,0.98491,  25.9959
    17,'SORENSON    ', 138.0000,1,   1,   1,   1,1.00151,  26.7087
    18,'MCKINLEY    ', 138.0000,2,   1,   1,   1,0.98061,  25.7479
    19,'LINCOLN     ', 138.0000,2,   1,   1,   1,0.97369,  25.6552
    20,'ADAMS       ', 138.0000,1,   1,   1,   1,0.97659,  25.4508
    21,'JAY         ', 138.0000,1,   1,   1,   1,0.97999,  25.8317
    22,'RANDOLPH    ', 138.0000,1,   1,   1,   1,0.98801,  26.6898
    23,'COLLCRNR    ', 138.0000,1,   1,   1,   1,1.00332,  28.5929
    24,'TRENTON     ', 138.0000,2,   1,   1,   1,0.99219,  28.8530
    25,'TANNRSCK    ', 138.0000,2,   1,   1,   1,1.03712,  30.7663
    26,'TANNRSCK    ', 138.0000,2,   1,   1,   1,1.01500,  32.8240
    27,'MADISON     ', 138.0000,2,   1,   1,   1,0.97255,  26.9986
    28,'MULLIN      ', 138.0000,1,   1,   1,   1,0.96744,  26.5674
    29,'GRANT       ', 138.0000,1,   1,   1,   1,0.96577,  26.6263
    30,'SORENSON    ', 138.0000,1,   1,   1,   1,0.99561,  29.2630
    31,'DEERCRK     ', 138.0000,2,   1,   1,   1,0.96700,  26.9217
    32,'DELAWARE    ', 138.0000,2,   1,   1,   1,0.97647,  26.6974
    33,'HAVILAND    ', 138.0000,1,   1,   1,   1,0.98751,  25.0820
    34,'ROCKHILL    ', 138.0000,2,   1,   1,   1,0.99662,  25.4568
    35,'WESTLIMA    ', 138.0000,1,   1,   1,   1,0.99456,  25.1642
    36,'STERLING    ', 138.0000,2,   1,   1,   1,0.99400,  25.1799
    37,'EASTLIMA    ', 138.0000,1,   1,   1,   1,1.00155,  25.5972
    38,'EASTLIMA    ', 138.0000,1,   1,   1,   1,0.97475,  27.7029
    39,'NWLIBRTY    ', 138.0000,1,   1,   1,   1,0.97791,  24.5182
    40,'WEST END    ', 138.0000,2,   1,   1,   1,0.97000,  24.3972
    41,'S.TIFFIN    ', 138.0000,1,   1,   1,   1,0.97032,  24.0732
    42,'HOWARD      ', 138.0000,2,   1,   1,   1,0.98500,  24.8040
    43,'S.KENTON    ', 138.0000,1,   1,   1,   1,1.00117,  25.1515
    44,'WMVERNON    ', 138.0000,1,   1,   1,   1,1.01132,  26.1734
    45,'N.NEWARK    ', 138.0000,1,   1,   1,   1,1.00842,  27.1312
    46,'W.LANCST    ', 138.0000,2,   1,   1,   1,1.00500,  29.2735
    47,'CROOKSVL    ', 138.0000,1,   1,   1,   1,1.02064,  29.0356
    48,'ZANESVLL    ', 138.0000,1,   1,   1,   1,1.02409,  29.0559
    49,'PHILO       ', 138.0000,2,   1,   1,   1,1.02500,  29.4255
    50,'WCAMBRDG    ', 138.0000,1,   1,   1,   1,1.01058,  27.9182
    51,'NEWCMRST    ', 138.0000,1,   1,   1,   1,0.99034,  26.0172
    52,'SCOSHOCT    ', 138.0000,1,   1,   1,   1,0.98456,  25.3751
    53,'WOOSTER     ', 138.0000,1,   1,   1,   1,0.97646,  24.5296
    54,'TORREY      ', 138.0000,2,   1,   1,   1,0.97795,  24.8012
    55,'WAGENHLS    ', 138.0000,2,   1,   1,   1,0.97571,  24.6745
    56,'SUNNYSDE    ', 138.0000,2,   1,   1,   1,0.97744,  24.7902
    57,'WNWPHIL1    ', 138.0000,1,   1,   1,   1,0.99023,  25.8892
    58,'WNWPHIL2    ', 138.0000,1,   1,   1,   1,0.98391,  25.3284
    59,'TIDD        ', 138.0000,2,   1,   1,   1,0.98500,  26.9230
    60,'SWKAMMER    ', 138.0000,1,   1,   1,   1,0.99463,  29.2182
    61,'W.KAMMER    ', 138.0000,2,   1,   1,   1,0.99500,  29.6455
    62,'NATRIUM     ', 138.0000,2,   1,   1,   1,1.00118,  29.7639
    63,'TIDD        ', 138.0000,1,   1,   1,   1,0.96902,  28.6163
    64,'KAMMER      ', 138.0000,1,   1,   1,   1,0.98178,  29.4764
    65,'MUSKNGUM    ', 138.0000,2,   1,   1,   1,0.99433,  30.5806
    66,'MUSKNGUM    ', 138.0000,2,   1,   1,   1,1.05000,  34.0987
    67,'SUMMERFL    ', 138.0000,1,   1,   1,   1,1.02419,  31.6711
    68,'SPORN       ', 138.0000,1,   1,   1,   1,0.99259,  29.9453
    69,'SPORN       ', 138.0000,3,   1,   1,   1,1.03500,  30.0000
    70,'PORTSMTH    ', 138.0000,2,   1,   1,   1,0.99783,  28.0378
    71,'NPORTSMT    ', 138.0000,1,   1,   1,   1,0.99574,  28.3636
    72,'HILLSBRO    ', 138.0000,2,   1,   1,   1,0.99677,  28.1647
    73,'SARGENTS    ', 138.0000,2,   1,   1,   1,0.99100,  28.8343
    74,'BELLEFNT    ', 138.0000,2,   1,   1,   1,0.97966,  27.6732
    75,'STHPOINT    ', 138.0000,1,   1,   1,   1,0.99223,  27.7638
    76,'DARRAH      ', 138.0000,2,   1,   1,   1,0.98159,  27.0598
    77,'TURNER      ', 138.0000,2,   1,   1,   1,1.02112,  29.5427
    78,'CHEMICAL    ', 138.0000,1,   1,   1,   1,1.02056,  29.3841
    79,'CAPITLHL    ', 138.0000,1,   1,   1,   1,1.02535,  29.5739
    80,'CABINCRK    ', 138.0000,2,   1,   1,   1,1.04000,  30.9864
    81,'KANAWHA     ', 138.0000,1,   1,   1,   1,0.99013,  30.3499
    82,'LOGAN       ', 138.0000,1,   1,   1,   1,1.01057,  30.2447
    83,'SPRIGG      ', 138.0000,1,   1,   1,   1,1.00349,  31.0394
    84,'BETSYLNE    ', 138.0000,1,   1,   1,   1,0.98975,  32.7725
    85,'BEAVERCK    ', 138.0000,2,   1,   1,   1,0.98671,  33.8246
    86,'HAZARD      ', 138.0000,1,   1,   1,   1,0.98228,  32.9574
    87,'PINEVLLE    ', 138.0000,2,   1,   1,   1,0.98684,  32.9211
    88,'FREMONT     ', 138.0000,1,   1,   1,   1,0.99337,  35.1117
    89,'CLINCHRV    ', 138.0000,2,   1,   1,   1,1.00500,  37.0825
    90,'HOLSTON     ', 138.0000,2,   1,   1,   1,0.98500,  34.3127
    91,'HOLSTONT    ', 138.0000,2,   1,   1,   1,0.99311,  34.0685
    92,'SALTVLLE    ', 138.0000,2,   1,   1,   1,1.00427,  34.1785
    93,'TAZEWELL    ', 138.0000,1,   1,   1,   1,1.00400,  32.6458
    94,'SWITCHBK    ', 138.0000,1,   1,   1,   1,1.00717,  31.5850
    95,'CALDWELL    ', 138.0000,1,   1,   1,   1,1.00351,  30.8748
    96,'BAILEYSV    ', 138.0000,1,   1,   1,   1,1.01183,  30.5632
    97,'SUNDIAL     ', 138.0000,1,   1,   1,   1,1.02366,  30.5729
    98,'BRADLEY     ', 138.0000,1,   1,   1,   1,1.02809,  30.6509
    99,'HINTON      ', 138.0000,2,   1,   1,   1,1.02264,  30.8956
   100,'GLEN LYN    ', 138.0000,2,   1,   1,   1,1.01700,  31.9685
   101,'WYTHE       ', 138.0000,1,   1,   1,   1,1.00547,  32.4101
   102,'SMYTHE      ', 138.0000,1,   1,   1,   1,1.00452,  33.5267
   103,'CLAYTOR     ', 138.0000,2,   1,   1,   1,1.01000,  31.3556
   104,'HANCOCK     ', 138.0000,2,   1,   1,   1,0.98910,  29.9959
   105,'ROANOKE     ', 138.0000,2,   1,   1,   1,0.98468,  29.7160
   106,'CLOVERDL    ', 138.0000,1,   1,   1,   1,0.97977,  29.5382
   107,'REUSENS     ', 138.0000,2,   1,   1,   1,0.95200,  29.5485
   108,'BLAINE      ', 138.0000,1,   1,   1,   1,0.98066,  29.6176
   109,'FRANKLIN    ', 138.0000,1,   1,   1,   1,0.97895,  29.6005
   110,'FIELDALE    ', 138.0000,2,   1,   1,   1,0.97599,  29.7564
   111,'DANRIVER    ', 138.0000,2,   1,   1,   1,0.98000,  31.8990
   112,'DANVILLE    ', 138.0000,2,   1,   1,   1,0.96276,  28.3156
   113,'DEER CRK    ', 138.0000,2,   1,   1,   1,0.99878,  26.6424
   114,'WMEDFORD    ', 138.0000,1,   1,   1,   1,0.97233,  26.5065
   115,'MEDFORD     ', 138.0000,1,   1,   1,   1,0.97182,  26.5015
   116,'KYGERCRK    ', 138.0000,2,   1,   1,   1,0.99255,  29.6973
   117,'COREY       ', 138.0000,1,   1,   1,   1,0.97429,  25.4350
   118,'WHUNTNGD    ', 138.0000,1,   1,   1,   1,0.98385,  27.1858
 0 /End of Bus data, Begin Load data
     1,'1 ',1,   1,   1,     0.000,     0.000,     0.000,     0.000,    30.796,   -16.303,   1,1
     2,'1 ',1,   1,   1,     0.000,     0.000,     0.000,     0.000,    11.956,    -5.380,   1,1
     2,'PV',1,   1,   1,     0.000,     0.000,     0.000,     0.000,     0.000,     0.000,   1,1
     3,'1 ',1,   1,   1,     0.000,     0.000,     0.000,     0.000,    23.177,    -5.943,   1,1
     3,'PV',1,   1,   1,     0.000,     0.000,     0.000,     0.000,     0.000,     0.000,   1,1
     4,'1 ',1,   1,   1,     0.000,     0.000,     0.000,     0.000,    22.256,    -6.848,   1,1
     6,'1 ',1,   1,   1,     0.000,     0.000,     0.000,     0.000,    30.156,   -12.758,   1,1
     7,'1 ',1,   1,   1,     0.000,     0.000,     0.000,     0.000,    11.090,    -1.168,   1,1
     7,'PV',1,   1,   1,     0.000,     0.000,     0.000,     0.000,     0.000,     0.000,   1,1
     8,'1 ',1,   1,   1,     0.000,     0.000,     0.000,     0.000,    15.448,     0.000,   1,1
    11,'1 ',1,   1,   1,     0.000,     0.000,     0.000,     0.000,    41.053,   -13.489,   1,1
    11,'PV',1,   1,   1,     0.000,     0.000,     0.000,     0.000,     0.000,     0.000,   1,1
    12,'1 ',1,   1,   1,     0.000,     0.000,     0.000,     0.000,    27.683,    -5.890,   1,1
    13,'1 ',1,   1,   1,     0.000,     0.000,     0.000,     0.000,    20.225,    -9.517,   1,1
    13,'PV',1,   1,   1,     0.000,     0.000,     0.000,     0.000,     0.000,     0.000,   1,1
    14,'1 ',1,   1,   1,     0.000,     0.000,     0.000,     0.000,     8.243,    -0.588,   1,1
    14,'PV',1,   1,   1,     0.000,     0.000,     0.000,     0.000,     0.000,     0.000,   1,1
    15,'1 ',1,   1,   1,     0.000,     0.000,     0.000,     0.000,    53.004,   -17.669,   1,1
    16,'1 ',1,   1,   1,     0.000,     0.000,     0.000,     0.000,    14.649,    -5.859,   1,1
    16,'PV',1,   1,   1,     0.000,     0.000,     0.000,     0.000,     0.000,     0.000,   1,1
    17,'1 ',1,   1,   1,     0.000,     0.000,     0.000,     0.000,     6.233,    -1.700,   1,1
    17,'PV',1,   1,   1,     0.000,     0.000,     0.000,     0.000,     0.000,     0.000,   1,1
    18,'1 ',1,   1,   1,     0.000,     0.000,     0.000,     0.000,    35.465,   -20.097,   1,1
    19,'1 ',1,   1,   1,     0.000,     0.000,     0.000,     0.000,    26.978,   -14.988,   1,1
    20,'1 ',1,   1,   1,     0.000,     0.000,     0.000,     0.000,    10.727,    -1.788,   1,1
    20,'PV',1,   1,   1,     0.000,     0.000,     0.000,     0.000,     0.000,     0.000,   1,1
    21,'1 ',1,   1,   1,     0.000,     0.000,     0.000,     0.000,     8.285,    -4.735,   1,1
    21,'PV',1,   1,   1,     0.000,     0.000,     0.000,     0.000,     0.000,     0.000,   1,1
    22,'1 ',1,   1,   1,     0.000,     0.000,     0.000,     0.000,     5.823,    -2.911,   1,1
    22,'PV',1,   1,   1,     0.000,     0.000,     0.000,     0.000,     0.000,     0.000,   1,1
    23,'1 ',1,   1,   1,     0.000,     0.000,     0.000,     0.000,     3.953,    -1.694,   1,1
    23,'PV',1,   1,   1,     0.000,     0.000,     0.000,     0.000,     0.000,     0.000,   1,1
    24,'1 ',1,   1,   1,     0.000,     0.000,     0.000,     0.000,     7.506,     0.000,   1,1
    27,'1 ',1,   1,   1,     0.000,     0.000,     0.000,     0.000,    42.665,    -7.812,   1,1
    28,'1 ',1,   1,   1,     0.000,     0.000,     0.000,     0.000,    10.324,    -4.251,   1,1
    28,'PV',1,   1,   1,     0.000,     0.000,     0.000,     0.000,     0.000,     0.000,   1,1
    29,'1 ',1,   1,   1,     0.000,     0.000,     0.000,     0.000,    14.625,    -2.438,   1,1
    29,'PV',1,   1,   1,     0.000,     0.000,     0.000,     0.000,     0.000,     0.000,   1,1
    31,'1 ',1,   1,   1,     0.000,     0.000,     0.000,     0.000,    26.138,   -16.411,   1,1
    32,'1 ',1,   1,   1,     0.000,     0.000,     0.000,     0.000,    35.171,   -13.711,   1,1
    33,'1 ',1,   1,   1,     0.000,     0.000,     0.000,     0.000,    13.406,    -5.245,   1,1
    33,'PV',1,   1,   1,     0.000,     0.000,     0.000,     0.000,     0.000,     0.000,   1,1
    34,'1 ',1,   1,   1,     0.000,     0.000,     0.000,     0.000,    33.763,   -14.878,   1,1
    35,'1 ',1,   1,   1,     0.000,     0.000,     0.000,     0.000,    18.963,    -5.171,   1,1
    35,'PV',1,   1,   1,     0.000,     0.000,     0.000,     0.000,     0.000,     0.000,   1,1
    36,'1 ',1,   1,   1,     0.000,     0.000,     0.000,     0.000,    17.833,    -9.780,   1,1
    39,'1 ',1,   1,   1,     0.000,     0.000,     0.000,     0.000,    16.053,    -6.541,   1,1
    39,'PV',1,   1,   1,     0.000,     0.000,     0.000,     0.000,     0.000,     0.000,   1,1
    40,'1 ',1,   1,   1,     0.000,     0.000,     0.000,     0.000,    39.884,   -13.899,   1,1
    41,'1 ',1,   1,   1,     0.000,     0.000,     0.000,     0.000,    22.345,    -6.039,   1,1
    41,'PV',1,   1,   1,     0.000,     0.000,     0.000,     0.000,     0.000,     0.000,   1,1
    42,'1 ',1,   1,   1,     0.000,     0.000,     0.000,     0.000,    56.260,   -13.479,   1,1
    43,'1 ',1,   1,   1,     0.000,     0.000,     0.000,     0.000,    10.211,    -3.971,   1,1
    43,'PV',1,   1,   1,     0.000,     0.000,     0.000,     0.000,     0.000,     0.000,   1,1
    44,'1 ',1,   1,   1,     0.000,     0.000,     0.000,     0.000,     8.895,    -4.448,   1,1
    44,'PV',1,   1,   1,     0.000,     0.000,     0.000,     0.000,     0.000,     0.000,   1,1
    45,'1 ',1,   1,   1,     0.000,     0.000,     0.000,     0.000,    29.635,   -12.301,   1,1
    45,'PV',1,   1,   1,     0.000,     0.000,     0.000,     0.000,     0.000,     0.000,   1,1
    46,'1 ',1,   1,   1,     0.000,     0.000,     0.000,     0.000,    15.763,    -5.630,   1,1
    47,'1 ',1,   1,   1,     0.000,     0.000,     0.000,     0.000,    18.558,     0.000,   1,1
    47,'PV',1,   1,   1,     0.000,     0.000,     0.000,     0.000,     0.000,     0.000,   1,1
    48,'1 ',1,   1,   1,     0.000,     0.000,     0.000,     0.000,    10.843,    -5.964,   1,1
    48,'PV',1,   1,   1,     0.000,     0.000,     0.000,     0.000,     0.000,     0.000,   1,1
    49,'1 ',1,   1,   1,     0.000,     0.000,     0.000,     0.000,    47.084,   -16.236,   1,1
    50,'1 ',1,   1,   1,     0.000,     0.000,     0.000,     0.000,     9.465,    -2.227,   1,1
    50,'PV',1,   1,   1,     0.000,     0.000,     0.000,     0.000,     0.000,     0.000,   1,1
    51,'1 ',1,   1,   1,     0.000,     0.000,     0.000,     0.000,     9.855,    -4.638,   1,1
    51,'PV',1,   1,   1,     0.000,     0.000,     0.000,     0.000,     0.000,     0.000,   1,1
    52,'1 ',1,   1,   1,     0.000,     0.000,     0.000,     0.000,    10.559,    -2.933,   1,1
    52,'PV',1,   1,   1,     0.000,     0.000,     0.000,     0.000,     0.000,     0.000,   1,1
    53,'1 ',1,   1,   1,     0.000,     0.000,     0.000,     0.000,    13.716,    -6.560,   1,1
    53,'PV',1,   1,   1,     0.000,     0.000,     0.000,     0.000,     0.000,     0.000,   1,1
    54,'1 ',1,   1,   1,     0.000,     0.000,     0.000,     0.000,    67.181,   -19.025,   1,1
    55,'1 ',1,   1,   1,     0.000,     0.000,     0.000,     0.000,    37.628,   -13.140,   1,1
    56,'1 ',1,   1,   1,     0.000,     0.000,     0.000,     0.000,    49.992,   -10.713,   1,1
    57,'1 ',1,   1,   1,     0.000,     0.000,     0.000,     0.000,     6.958,    -1.740,   1,1
    57,'PV',1,   1,   1,     0.000,     0.000,     0.000,     0.000,     0.000,     0.000,   1,1
    58,'1 ',1,   1,   1,     0.000,     0.000,     0.000,     0.000,     7.048,    -1.762,   1,1
    58,'PV',1,   1,   1,     0.000,     0.000,     0.000,     0.000,     0.000,     0.000,   1,1
    59,'1 ',1,   1,   1,     0.000,     0.000,     0.000,     0.000,   162.336,   -66.223,   1,1
    60,'1 ',1,   1,   1,     0.000,     0.000,     0.000,     0.000,    44.830,    -1.724,   1,1
    60,'PV',1,   1,   1,     0.000,     0.000,     0.000,     0.000,     0.000,     0.000,   1,1
    62,'1 ',1,   1,   1,     0.000,     0.000,     0.000,     0.000,    43.678,    -7.941,   1,1
    66,'1 ',1,   1,   1,     0.000,     0.000,     0.000,     0.000,    20.113,    -9.283,   1,1
    67,'1 ',1,   1,   1,     0.000,     0.000,     0.000,     0.000,    15.178,    -3.794,   1,1
    67,'PV',1,   1,   1,     0.000,     0.000,     0.000,     0.000,     0.000,     0.000,   1,1
    70,'1 ',1,   1,   1,     0.000,     0.000,     0.000,     0.000,    37.690,   -11.422,   1,1
    72,'1 ',1,   1,   1,     0.000,     0.000,     0.000,     0.000,     6.867,     0.000,   1,1
    73,'1 ',1,   1,   1,     0.000,     0.000,     0.000,     0.000,     3.474,     0.000,   1,1
    74,'1 ',1,   1,   1,     0.000,     0.000,     0.000,     0.000,    40.286,   -15.996,   1,1
    75,'1 ',1,   1,   1,     0.000,     0.000,     0.000,     0.000,    27.144,    -6.353,   1,1
    75,'PV',1,   1,   1,     0.000,     0.000,     0.000,     0.000,     0.000,     0.000,   1,1
    76,'1 ',1,   1,   1,     0.000,     0.000,     0.000,     0.000,    40.126,   -21.243,   1,1
    77,'1 ',1,   1,   1,     0.000,     0.000,     0.000,     0.000,    33.262,   -15.268,   1,1
    78,'1 ',1,   1,   1,     0.000,     0.000,     0.000,     0.000,    38.758,   -14.193,   1,1
    78,'PV',1,   1,   1,     0.000,     0.000,     0.000,     0.000,     0.000,     0.000,   1,1
    79,'1 ',1,   1,   1,     0.000,     0.000,     0.000,     0.000,    21.091,   -17.306,   1,1
    79,'PV',1,   1,   1,     0.000,     0.000,     0.000,     0.000,     0.000,     0.000,   1,1
    80,'1 ',1,   1,   1,     0.000,     0.000,     0.000,     0.000,    68.337,   -13.668,   1,1
    82,'1 ',1,   1,   1,     0.000,     0.000,     0.000,     0.000,    30.063,   -15.032,   1,1
    82,'PV',1,   1,   1,     0.000,     0.000,     0.000,     0.000,     0.000,     0.000,   1,1
    83,'1 ',1,   1,   1,     0.000,     0.000,     0.000,     0.000,    11.292,    -5.646,   1,1
    83,'PV',1,   1,   1,     0.000,     0.000,     0.000,     0.000,     0.000,     0.000,   1,1
    84,'1 ',1,   1,   1,     0.000,     0.000,     0.000,     0.000,     6.384,    -4.063,   1,1
    84,'PV',1,   1,   1,     0.000,     0.000,     0.000,     0.000,     0.000,     0.000,   1,1
    85,'1 ',1,   1,   1,     0.000,     0.000,     0.000,     0.000,    14.015,    -8.759,   1,1
    86,'1 ',1,   1,   1,     0.000,     0.000,     0.000,     0.000,    12.375,    -5.893,   1,1
    86,'PV',1,   1,   1,     0.000,     0.000,     0.000,     0.000,     0.000,     0.000,   1,1
    88,'1 ',1,   1,   1,     0.000,     0.000,     0.000,     0.000,    27.657,    -5.762,   1,1
    88,'PV',1,   1,   1,     0.000,     0.000,     0.000,     0.000,     0.000,     0.000,   1,1
    90,'1 ',1,   1,   1,     0.000,     0.000,     0.000,     0.000,    95.519,   -24.613,   1,1
    91,'1 ',1,   1,   1,     0.000,     0.000,     0.000,     0.000,     5.765,     0.000,   1,1
    92,'1 ',1,   1,   1,     0.000,     0.000,     0.000,     0.000,    36.643,    -5.638,   1,1
    93,'1 ',1,   1,   1,     0.000,     0.000,     0.000,     0.000,     6.769,    -3.948,   1,1
    93,'PV',1,   1,   1,     0.000,     0.000,     0.000,     0.000,     0.000,     0.000,   1,1
    94,'1 ',1,   1,   1,     0.000,     0.000,     0.000,     0.000,    16.815,    -8.968,   1,1
    94,'PV',1,   1,   1,     0.000,     0.000,     0.000,     0.000,     0.000,     0.000,   1,1
    95,'1 ',1,   1,   1,     0.000,     0.000,     0.000,     0.000,    23.713,   -17.502,   1,1
    95,'PV',1,   1,   1,     0.000,     0.000,     0.000,     0.000,     0.000,     0.000,   1,1
    96,'1 ',1,   1,   1,     0.000,     0.000,     0.000,     0.000,    21.103,    -8.330,   1,1
    96,'PV',1,   1,   1,     0.000,     0.000,     0.000,     0.000,     0.000,     0.000,   1,1
    97,'1 ',1,   1,   1,     0.000,     0.000,     0.000,     0.000,     8.138,    -4.883,   1,1
    97,'PV',1,   1,   1,     0.000,     0.000,     0.000,     0.000,     0.000,     0.000,   1,1
    98,'1 ',1,   1,   1,     0.000,     0.000,     0.000,     0.000,    18.289,    -4.303,   1,1
    98,'PV',1,   1,   1,     0.000,     0.000,     0.000,     0.000,     0.000,     0.000,   1,1
    99,'1 ',1,   1,   1,     0.000,     0.000,     0.000,     0.000,    22.834,     0.000,   1,1
   100,'1 ',1,   1,   1,     0.000,     0.000,     0.000,     0.000,    20.340,    -9.895,   1,1
   101,'1 ',1,   1,   1,     0.000,     0.000,     0.000,     0.000,    12.372,    -8.435,   1,1
   101,'PV',1,   1,   1,     0.000,     0.000,     0.000,     0.000,     0.000,     0.000,   1,1
   102,'1 ',1,   1,   1,     0.000,     0.000,     0.000,     0.000,     2.817,    -1.691,   1,1
   102,'PV',1,   1,   1,     0.000,     0.000,     0.000,     0.000,     0.000,     0.000,   1,1
   103,'1 ',1,   1,   1,     0.000,     0.000,     0.000,     0.000,    12.819,    -8.918,   1,1
   104,'1 ',1,   1,   1,     0.000,     0.000,     0.000,     0.000,    22.084,   -14.529,   1,1
   105,'1 ',1,   1,   1,     0.000,     0.000,     0.000,     0.000,    18.178,   -15.247,   1,1
   106,'1 ',1,   1,   1,     0.000,     0.000,     0.000,     0.000,    25.468,    -9.477,   1,1
   106,'PV',1,   1,   1,     0.000,     0.000,     0.000,     0.000,     0.000,     0.000,   1,1
   107,'1 ',1,   1,   1,     0.000,     0.000,     0.000,     0.000,    31.367,    -7.528,   1,1
   108,'1 ',1,   1,   1,     0.000,     0.000,     0.000,     0.000,     1.182,    -0.592,   1,1
   108,'PV',1,   1,   1,     0.000,     0.000,     0.000,     0.000,     0.000,     0.000,   1,1
   109,'1 ',1,   1,   1,     0.000,     0.000,     0.000,     0.000,     4.746,    -1.780,   1,1
   109,'PV',1,   1,   1,     0.000,     0.000,     0.000,     0.000,     0.000,     0.000,   1,1
   110,'1 ',1,   1,   1,     0.000,     0.000,     0.000,     0.000,    23.278,   -17.906,   1,1
   112,'1 ',1,   1,   1,     0.000,     0.000,     0.000,     0.000,    41.711,    -7.974,   1,1
   113,'1 ',1,   1,   1,     0.000,     0.000,     0.000,     0.000,     3.419,     0.000,   1,1
   114,'1 ',1,   1,   1,     0.000,     0.000,     0.000,     0.000,     4.811,    -1.804,   1,1
   114,'PV',1,   1,   1,     0.000,     0.000,     0.000,     0.000,     0.000,     0.000,   1,1
   115,'1 ',1,   1,   1,     0.000,     0.000,     0.000,     0.000,    13.244,    -4.214,   1,1
   115,'PV',1,   1,   1,     0.000,     0.000,     0.000,     0.000,     0.000,     0.000,   1,1
   116,'1 ',1,   1,   1,     0.000,     0.000,     0.000,     0.000,   106.192,     0.000,   1,1
   117,'1 ',1,   1,   1,     0.000,     0.000,     0.000,     0.000,    11.979,    -4.791,   1,1
   117,'PV',1,   1,   1,     0.000,     0.000,     0.000,     0.000,     0.000,     0.000,   1,1
   118,'1 ',1,   1,   1,     0.000,     0.000,     0.000,     0.000,    19.383,    -8.810,   1,1
   118,'PV',1,   1,   1,     0.000,     0.000,     0.000,     0.000,     0.000,     0.000,   1,1
 0 /End of Load data, Begin Fixed shunt data
     5,'1 ',1,     0.000,   -40.000
    34,'1 ',1,     0.000,    14.000
    37,'1 ',1,     0.000,   -25.000
    44,'1 ',1,     0.000,    10.000
    45,'1 ',1,     0.000,    10.000
    46,'1 ',1,     0.000,    10.000
    48,'1 ',1,     0.000,    15.000
    74,'1 ',1,     0.000,    12.000
    79,'1 ',1,     0.000,    20.000
    82,'1 ',1,     0.000,    20.000
    83,'1 ',1,     0.000,    10.000
   105,'1 ',1,     0.000,    20.000
   107,'1 ',1,     0.000,     6.000
   110,'1 ',1,     0.000,     6.000
 0 /End of Fixed shunt data, Begin Generator data
     1,'1 ',     0.000,     0.000,    60.000,   -38.000,0.95500,     0,   100.000, 0.00000E+0, 1.80000E-1, 0.00000E+0, 0.00000E+0,1.00000,0,  100.0,    75.000,    16.000,   1,1.0000
     4,'1 ',    18.750,   -21.352,    54.000,   -36.000,0.99800,     0,   100.000, 0.00000E+0, 1.80000E-1, 0.00000E+0, 0.00000E+0,1.00000,1,  100.0,    75.000,    15.000,   1,1.0000
     6,'1 ',    18.750,     8.738,    54.000,   -36.000,0.99000,     0,   100.000, 0.00000E+0, 1.80000E-1, 0.00000E+0, 0.00000E+0,1.00000,1,  100.0,    75.000,    15.000,   1,1.0000
     8,'1 ',    18.750,    -8.931,    54.000,   -36.000,1.01500,     0,   100.000, 0.00000E+0, 1.80000E-1, 0.00000E+0, 0.00000E+0,1.00000,1,  100.0,    75.000,    15.000,   1,1.0000
    10,'1 ',   304.425,   -71.258,   388.000,  -290.000,1.05000,     0,   100.000, 0.00000E+0, 1.80000E-1, 0.00000E+0, 0.00000E+0,1.00000,1,  100.0,   629.000,   256.000,   1,1.0000
    12,'1 ',     0.000,     0.000,   120.000,  -105.000,0.99000,     0,   100.000, 0.00000E+0, 1.80000E-1, 0.00000E+0, 0.00000E+0,1.00000,0,  100.0,   185.000,    61.667,   1,1.0000
    15,'1 ',     0.000,     0.000,    54.000,   -36.000,0.97000,     0,   100.000, 0.00000E+0, 1.80000E-1, 0.00000E+0, 0.00000E+0,1.00000,0,  100.0,    75.000,    15.000,   1,1.0000
    18,'1 ',     0.000,     0.000,    54.000,   -36.000,0.97300,     0,   100.000, 0.00000E+0, 1.80000E-1, 0.00000E+0, 0.00000E+0,1.00000,0,  100.0,    75.000,    18.750,   1,1.0000
    19,'1 ',    18.750,   -36.000,    54.000,   -36.000,0.96200,     0,   100.000, 0.00000E+0, 1.80000E-1, 0.00000E+0, 0.00000E+0,1.00000,1,  100.0,    75.000,    15.000,   1,1.0000
    24,'1 ',    18.793,   -38.000,    60.000,   -38.000,0.99200,     0,   100.000, 0.00000E+0, 1.80000E-1, 0.00000E+0, 0.00000E+0,1.00000,1,  100.0,    75.000,    15.000,   1,1.0000
    25,'1 ',     0.000,     0.000,   263.000,  -164.000,1.05000,     0,   100.000, 0.00000E+0, 1.80000E-1, 0.00000E+0, 0.00000E+0,1.00000,0,  100.0,   320.000,   106.632,   1,1.0000
    26,'1 ',   177.744,    29.134,   250.000,  -215.000,1.01500,     0,   100.000, 0.00000E+0, 1.80000E-1, 0.00000E+0, 0.00000E+0,1.00000,1,  100.0,   450.000,   148.000,   1,1.0000
    27,'1 ',    18.750,   -36.000,    54.000,   -36.000,0.96800,     0,   100.000, 0.00000E+0, 1.80000E-1, 0.00000E+0, 0.00000E+0,1.00000,1,  100.0,    75.000,    15.000,   1,1.0000
    31,'1 ',    35.701,   -18.825,    90.000,   -60.000,0.96700,     0,   100.000, 0.00000E+0, 1.80000E-1, 0.00000E+0, 0.00000E+0,1.00000,1,  100.0,   107.000,    29.000,   1,1.0000
    32,'1 ',     0.000,     0.000,    60.000,   -38.000,0.96300,     0,   100.000, 0.00000E+0, 1.80000E-1, 0.00000E+0, 0.00000E+0,1.00000,0,  100.0,    75.000,    18.793,   1,1.0000
    34,'1 ',    18.792,   -38.000,    60.000,   -38.000,0.98400,     0,   100.000, 0.00000E+0, 1.80000E-1, 0.00000E+0, 0.00000E+0,1.00000,1,  100.0,    75.000,    15.000,   1,1.0000
    36,'1 ',     0.000,     0.000,    60.000,   -38.000,0.98000,     0,   100.000, 0.00000E+0, 1.80000E-1, 0.00000E+0, 0.00000E+0,1.00000,0,  100.0,    75.000,    18.750,   1,1.0000
    40,'1 ',    18.792,   -25.145,    60.000,   -38.000,0.97000,     0,   100.000, 0.00000E+0, 1.80000E-1, 0.00000E+0, 0.00000E+0,1.00000,1,  100.0,    75.000,    15.000,   1,1.0000
    42,'1 ',    18.750,     3.839,    54.000,   -36.000,0.98500,     0,   100.000, 0.00000E+0, 1.80000E-1, 0.00000E+0, 0.00000E+0,1.00000,1,  100.0,    75.000,    15.000,   1,1.0000
    46,'1 ',    39.705,   -41.590,    92.000,  -110.000,1.00500,     0,   100.000, 0.00000E+0, 1.80000E-1, 0.00000E+0, 0.00000E+0,1.00000,1,  100.0,   119.000,    33.000,   1,1.0000
    49,'1 ',   101.301,    27.660,   253.000,  -152.000,1.02500,     0,   100.000, 0.00000E+0, 1.80000E-1, 0.00000E+0, 0.00000E+0,1.00000,1,  100.0,   308.000,    84.000,   1,1.0000
    54,'1 ',     0.000,     0.000,   116.000,   -90.000,0.95500,     0,   100.000, 0.00000E+0, 1.80000E-1, 0.00000E+0, 0.00000E+0,1.00000,0,  100.0,   148.000,    42.000,   1,1.0000
    55,'1 ',     0.000,     0.000,    54.000,   -36.000,0.95200,     0,   100.000, 0.00000E+0, 1.80000E-1, 0.00000E+0, 0.00000E+0,1.00000,0,  100.0,    75.000,    18.750,   1,1.0000
    56,'1 ',     0.000,     0.000,    54.000,   -36.000,0.95400,     0,   100.000, 0.00000E+0, 1.80000E-1, 0.00000E+0, 0.00000E+0,1.00000,0,  100.0,    75.000,    18.750,   1,1.0000
    59,'1 ',    84.973,   -12.918,   158.000,  -126.000,0.98500,     0,   100.000, 0.00000E+0, 1.80000E-1, 0.00000E+0, 0.00000E+0,1.00000,1,  100.0,   257.000,    70.000,   1,1.0000
    61,'1 ',    86.639,   -30.950,   161.000,  -120.000,0.99500,     0,   100.000, 0.00000E+0, 1.80000E-1, 0.00000E+0, 0.00000E+0,1.00000,1,  100.0,   260.000,    72.000,   1,1.0000
    62,'1 ',     0.000,     0.000,    54.000,   -36.000,0.99800,     0,   100.000, 0.00000E+0, 1.80000E-1, 0.00000E+0, 0.00000E+0,1.00000,0,  100.0,    75.000,    18.750,   1,1.0000
    65,'1 ',     0.000,     0.000,   275.000,  -195.000,1.00500,     0,   100.000, 0.00000E+0, 1.80000E-1, 0.00000E+0, 0.00000E+0,1.00000,0,  100.0,   526.000,   115.000,   1,1.0000
    66,'1 ',   492.000,    29.828,   316.000,  -185.000,1.05000,     0,   100.000, 0.00000E+0, 1.80000E-1, 0.00000E+0, 0.00000E+0,1.00000,1,  100.0,   572.000,   235.000,   1,1.0000
    69,'1 ',    99.603,   -39.119,   400.000,  -400.000,1.03500,     0,   100.000, 0.00000E+0, 1.80000E-1, 0.00000E+0, 0.00000E+0,1.00000,1,  100.0,   500.000,     0.000,   1,1.0000
    70,'1 ',     0.000,     0.000,    60.000,   -38.000,0.98400,     0,   100.000, 0.00000E+0, 1.80000E-1, 0.00000E+0, 0.00000E+0,1.00000,0,  100.0,    75.000,    18.730,   1,1.0000
    72,'1 ',     0.000,     0.000,    60.000,   -38.000,0.98000,     0,   100.000, 0.00000E+0, 1.80000E-1, 0.00000E+0, 0.00000E+0,1.00000,0,  100.0,    75.000,    16.000,   1,1.0000
    73,'1 ',    18.750,   -13.784,    54.000,   -36.000,0.99100,     0,   100.000, 0.00000E+0, 1.80000E-1, 0.00000E+0, 0.00000E+0,1.00000,1,  100.0,    75.000,    15.000,   1,1.0000
    74,'1 ',    18.750,   -36.000,    54.000,   -36.000,0.95800,     0,   100.000, 0.00000E+0, 1.80000E-1, 0.00000E+0, 0.00000E+0,1.00000,1,  100.0,    75.000,    15.000,   1,1.0000
    76,'1 ',     0.000,     0.000,    54.000,   -36.000,0.94300,     0,   100.000, 0.00000E+0, 1.80000E-1, 0.00000E+0, 0.00000E+0,1.00000,0,  100.0,    75.000,    18.750,   1,1.0000